Circuit: * D:\lab\Memristor model\LTspice\memristor_yakopcic_sim.asc

WARNING: Node NC_01 is floating and connected to current source G:U1:X.  It's .op solution is defined solely by a .ic statement.

Direct Newton iteration for .op point succeeded.

Date: Tue Dec  9 16:46:47 2025
Total elapsed time: 0.132 seconds.

tnom = 27
temp = 27
method = modified trap
totiter = 2237
traniter = 2233
tranpoints = 1064
accept = 1060
rejected = 4
matrix size = 3
fillins = 0
solver = Normal
Avg thread counts: 2.2/3.6/3.6/2.2
Matrix Compiler1: off  [0.1]/0.3/0.1
Matrix Compiler2: off  [0.0]/0.1/0.1

